Circuit: * C:\Users\cjhillis\Documents\LOCAL\lm335a\LM335_LM235_LM135_test.asc

ERROR: Node U1:VT is floating and connected to current source B:U1:1
ERROR: Node U2:VT is floating and connected to current source B:U2:1
ERROR: Node U3:VT is floating and connected to current source B:U3:1

WARNING: Less than two connections to node TEMP1.  This node is used by VTEMP.
WARNING: Less than two connections to node V135.  This node is used by R1.
WARNING: Less than two connections to node V235.  This node is used by R2.
WARNING: Less than two connections to node V335.  This node is used by R3.
Direct Newton iteration failed to find .op point.  (Use ".option noopiter" to skip.)
Starting Gmin stepping
Gmin = 10
Gmin = 1.07374
Gmin = 0.115292
Gmin = 0.0123794
Gmin = 0.00132923
Gmin = 0.000142725
Gmin = 1.5325e-005
Gmin = 1.6455e-006
Gmin = 1.76685e-007
Gmin = 1.89714e-008
Gmin = 2.03704e-009
Gmin = 2.18725e-010
Gmin = 2.34854e-011
Gmin = 2.52173e-012
Gmin = 2.70769e-013
Gmin = 0
Gmin stepping succeeded in finding the operating point.


Date: Sun Apr 02 23:27:06 2023
Total elapsed time: 0.085 seconds.

tnom = 27
temp = 27
method = trap
totiter = 576
traniter = 0
tranpoints = 0
accept = 0
rejected = 0
matrix size = 46
fillins = 36
solver = Normal
Matrix Compiler1:     294 opcodes  1.4/0.6/[0.3]
Matrix Compiler2: 4.42 KB object code size  0.4/0.6/[0.2]

